feeders/30_SE001_1/005_segmentoMT.dss
New Line.SMT_10004 phases=3 bus1=258971.1.2.3 bus2= 258981.1.2.3 linecode=10_3 length=0.09833 units=km
New Line.SMT_10006 phases=3 bus1=288171.1.2.3 bus2= 288181.1.2.3 linecode=10_3 length=0.08529 units=km
New Line.SMT_10012 phases=3 bus1=301411.1.2.3 bus2= 301401.1.2.3 linecode=10_3 length=0.1165 units=km
New Line.SMT_10017 phases=3 bus1=301351.1.2.3 bus2= 301281.1.2.3 linecode=10_3 length=0.04455 units=km
New Line.SMT_10020 phases=3 bus1=248191.1.2.3 bus2= 248201.1.2.3 linecode=13_3 length=0.08588 units=km
New Line.SMT_10022 phases=3 bus1=120531.1.2.3 bus2= 120541.1.2.3 linecode=3_3 length=0.04662 units=km
New Line.SMT_10053 phases=3 bus1=292071.1.2.3 bus2= 292051.1.2.3 linecode=28_3 length=0.11136 units=km
New Line.SMT_10061 phases=3 bus1=248171.1.2.3 bus2= 248161.1.2.3 linecode=28_3 length=0.0844 units=km
New Line.SMT_10069 phases=3 bus1=657111.1.2.3 bus2= 233061.1.2.3 linecode=10_3 length=0.03585 units=km
New Line.SMT_10070 phases=3 bus1=285791.1.2.3 bus2= 285801.1.2.3 linecode=10_3 length=0.06845 units=km
New Line.SMT_10076 phases=3 bus1=248171.1.2.3 bus2= 248181.1.2.3 linecode=13_3 length=0.02725 units=km
New Line.SMT_10080 phases=3 bus1=285801.1.2.3 bus2= 537971.1.2.3 linecode=10_3 length=0.07398 units=km
New Line.SMT_10084 phases=3 bus1=251421.1.2.3 bus2= 251431.1.2.3 linecode=10_3 length=0.10538 units=km
New Line.SMT_10091 phases=3 bus1=258991.1.2.3 bus2= 259001.1.2.3 linecode=10_3 length=0.07433 units=km
New Line.SMT_10101 phases=3 bus1=248101.1.2.3 bus2= 248091.1.2.3 linecode=28_3 length=0.06908 units=km
New Line.SMT_10104 phases=1 bus1=258931.1 bus2= 345971.1 linecode=1_1 length=0.30755 units=km
New Line.SMT_10107 phases=3 bus1=376271.1.2.3 bus2= 248171.1.2.3 linecode=28_3 length=0.07433 units=km
New Line.SMT_10121 phases=3 bus1=258911.1.2.3 bus2= 258921.1.2.3 linecode=10_3 length=0.07931 units=km
New Line.SMT_10128 phases=3 bus1=284831.1.2.3 bus2= 284841.1.2.3 linecode=10_3 length=0.08538 units=km
New Line.SMT_10133 phases=3 bus1=284661.1.2.3 bus2= 284671.1.2.3 linecode=10_3 length=0.08602 units=km
New Line.SMT_10135 phases=3 bus1=282761.1.2.3 bus2= 282771.1.2.3 linecode=13_3 length=0.09749 units=km
New Line.SMT_10136 phases=3 bus1=271151.1.2.3 bus2= 271141.1.2.3 linecode=28_3 length=0.12264 units=km
New Line.SMT_10143 phases=3 bus1=258931.1.2.3 bus2= 258941.1.2.3 linecode=10_3 length=0.08631 units=km
New Line.SMT_10144 phases=3 bus1=251471.1.2.3 bus2= 251541.1.2.3 linecode=10_3 length=0.07622 units=km
New Line.SMT_10174 phases=1 bus1=345971.1 bus2= 345981.1 linecode=1_1 length=0.10999 units=km
New Line.SMT_10177 phases=1 bus1=603231.3 bus2= 130751.3 linecode=29_1 length=0.31985 units=km
New Line.SMT_10180 phases=3 bus1=248111.1.2.3 bus2= 248101.1.2.3 linecode=28_3 length=0.06868 units=km
New Line.SMT_10181 phases=3 bus1=288121.1.2.3 bus2= 288131.1.2.3 linecode=10_3 length=0.09361 units=km
New Line.SMT_10185 phases=3 bus1=285891.1.2.3 bus2= 285901.1.2.3 linecode=13_3 length=0.04916 units=km
New Line.SMT_10187 phases=3 bus1=91891.1.2.3 bus2= 91881.1.2.3 linecode=28_3 length=0.03 units=km
New Line.SMT_10192 phases=3 bus1=598541.1.2.3 bus2= 282741.1.2.3 linecode=13_3 length=0.0719 units=km
New Line.SMT_10197 phases=3 bus1=295961.1.2.3 bus2= 295971.1.2.3 linecode=10_3 length=0.08538 units=km
New Line.SMT_10198 phases=3 bus1=284751.1.2.3 bus2= 284781.1.2.3 linecode=10_3 length=0.09521 units=km
New Line.SMT_10201 phases=1 bus1=380871.3 bus2= 380881.3 linecode=1_1 length=0.20778 units=km
New Line.SMT_10221 phases=3 bus1=248201.1.2.3 bus2= 285881.1.2.3 linecode=13_3 length=0.11318 units=km
New Line.SMT_10224 phases=3 bus1=183181.1.2.3 bus2= 183191.1.2.3 linecode=10_3 length=0.07393 units=km
New Line.SMT_10242 phases=3 bus1=285881.1.2.3 bus2= 285891.1.2.3 linecode=13_3 length=0.09851 units=km
New Line.SMT_10250 phases=3 bus1=233061.1.2.3 bus2= 233051.1.2.3 linecode=10_3 length=0.09009 units=km
New Line.SMT_10251 phases=3 bus1=248121.1.2.3 bus2= 248111.1.2.3 linecode=28_3 length=0.08417 units=km
New Line.SMT_10255 phases=3 bus1=248131.1.2.3 bus2= 248121.1.2.3 linecode=28_3 length=0.09024 units=km
New Line.SMT_10263 phases=3 bus1=259021.1.2.3 bus2= 251421.1.2.3 linecode=10_3 length=0.08768 units=km
New Line.SMT_10264 phases=3 bus1=284671.1.2.3 bus2= 284731.1.2.3 linecode=10_3 length=0.10004 units=km
New Line.SMT_10265 phases=3 bus1=284831.1.2.3 bus2= 329291.1.2.3 linecode=10_3 length=0.00244 units=km
New Line.SMT_10273 phases=3 bus1=194871.1.2.3 bus2= 663401.1.2.3 linecode=13_3 length=0.03764 units=km
New Line.SMT_10285 phases=3 bus1=252451.1.2.3.4 bus2= 252461.1.2.3.4 linecode=19_3 length=0.09585 units=km
New Line.SMT_10286 phases=1 bus1=271401.1 bus2= 271411.1 linecode=1_1 length=0.11229 units=km
New Line.SMT_10299 phases=3 bus1=284861.1.2.3 bus2= 284871.1.2.3 linecode=10_3 length=0.12333 units=km
New Line.SMT_10303 phases=3 bus1=294251.1.2.3 bus2= 294261.1.2.3 linecode=10_3 length=0.04982 units=km
New Line.SMT_10304 phases=1 bus1=289641.2 bus2= 271181.2 linecode=1_1 length=0.09535 units=km
New Line.SMT_10309 phases=3 bus1=231101.1.2.3 bus2= 231111.1.2.3 linecode=10_3 length=0.045 units=km
New Line.SMT_10319 phases=3 bus1=284871.1.2.3 bus2= 284881.1.2.3 linecode=10_3 length=0.08638 units=km
New Line.SMT_10322 phases=3 bus1=280941.1.2.3 bus2= 280951.1.2.3 linecode=10_3 length=0.1187 units=km
New Line.SMT_10325 phases=1 bus1=285291.2 bus2= 289621.2 linecode=1_1 length=0.07852 units=km
New Line.SMT_10329 phases=3 bus1=301391.1.2.3 bus2= 301381.1.2.3 linecode=10_3 length=0.09259 units=km
New Line.SMT_10330 phases=1 bus1=271181.2 bus2= 271191.2 linecode=1_1 length=0.07732 units=km
New Line.SMT_10331 phases=3 bus1=281001.1.2.3 bus2= 281011.1.2.3 linecode=10_3 length=0.09266 units=km
New Line.SMT_10338 phases=1 bus1=67391.2 bus2= 637501.2 linecode=1_1 length=0.08709 units=km
New Line.SMT_10340 phases=1 bus1=285281.2 bus2= 285291.2 linecode=1_1 length=0.09141 units=km
New Line.SMT_10341 phases=3 bus1=284281.1.2.3 bus2= 284291.1.2.3 linecode=11_3 length=0.11157 units=km
New Line.SMT_10346 phases=1 bus1=380861.3 bus2= 380871.3 linecode=1_1 length=0.17582 units=km
New Line.SMT_10350 phases=3 bus1=262431.1.2.3 bus2= 262441.1.2.3 linecode=13_3 length=0.10871 units=km
New Line.SMT_10355 phases=3 bus1=379011.1.2.3 bus2= 347261.1.2.3 linecode=10_3 length=0.11718 units=km
New Line.SMT_10356 phases=3 bus1=661421.1.2.3 bus2= 248191.1.2.3 linecode=13_3 length=0.10824 units=km
New Line.SMT_10359 phases=3 bus1=283221.1.2.3 bus2= 283231.1.2.3 linecode=10_3 length=0.06265 units=km
New Line.SMT_10364 phases=3 bus1=291261.1.2.3 bus2= 309551.1.2.3 linecode=10_3 length=0.00255 units=km
New Line.SMT_10377 phases=3 bus1=258871.1.2.3 bus2= 258881.1.2.3 linecode=10_3 length=0.09688 units=km
New Line.SMT_10380 phases=3 bus1=1CF610.1.2.3 bus2= 280941.1.2.3 linecode=10_3 length=0.12272 units=km
New Line.SMT_10385 phases=3 bus1=258981.1.2.3 bus2= 258991.1.2.3 linecode=10_3 length=0.09443 units=km
New Line.SMT_10387 phases=3 bus1=288211.1.2.3 bus2= 288221.1.2.3 linecode=10_3 length=0.10485 units=km
New Line.SMT_10389 phases=1 bus1=284731.3 bus2= 380861.3 linecode=1_1 length=0.23876 units=km
New Line.SMT_10392 phases=3 bus1=301401.1.2.3 bus2= 301391.1.2.3 linecode=10_3 length=0.09839 units=km
New Line.SMT_10396 phases=3 bus1=285681.1.2.3 bus2= 285691.1.2.3 linecode=10_3 length=0.09108 units=km
New Line.SMT_10410 phases=1 bus1=47961.2 bus2= 348351.2 linecode=1_1 length=0.37137 units=km
New Line.SMT_10418 phases=3 bus1=251441.1.2.3 bus2= 251451.1.2.3 linecode=10_3 length=0.08559 units=km
New Line.SMT_10423 phases=3 bus1=285691.1.2.3 bus2= 285711.1.2.3 linecode=10_3 length=0.06391 units=km
New Line.SMT_10426 phases=3 bus1=271131.1.2.3 bus2= 271121.1.2.3 linecode=28_3 length=0.12703 units=km
New Line.SMT_10427 phases=3 bus1=291161.1.2.3 bus2= 291171.1.2.3 linecode=10_3 length=0.05661 units=km
New Line.SMT_10433 phases=3 bus1=283291.1.2.3 bus2= 283301.1.2.3 linecode=10_3 length=0.1005 units=km
New Line.SMT_10434 phases=1 bus1=284101.1 bus2= 284111.1 linecode=1_1 length=0.10678 units=km
New Line.SMT_10460 phases=3 bus1=284841.1.2.3 bus2= 284861.1.2.3 linecode=10_3 length=0.13662 units=km
New Line.SMT_10461 phases=1 bus1=368271.2 bus2= 368281.2 linecode=1_1 length=0.05661 units=km
New Line.SMT_10471 phases=3 bus1=282771.1.2.3 bus2= 347761.1.2.3 linecode=13_3 length=0.09124 units=km
New Line.SMT_10475 phases=3 bus1=258881.1.2.3 bus2= 258891.1.2.3 linecode=10_3 length=0.08066 units=km
New Line.SMT_10484 phases=3 bus1=299451.1.2.3 bus2= 299461.1.2.3 linecode=11_3 length=0.12504 units=km
New Line.SMT_10492 phases=1 bus1=350641.3 bus2= 604041.3 linecode=1_1 length=0.03213 units=km
New Line.SMT_10497 phases=3 bus1=291951.1.2.3 bus2= 291961.1.2.3 linecode=13_3 length=0.09361 units=km
New Line.SMT_10499 phases=3 bus1=280991.1.2.3 bus2= 281001.1.2.3 linecode=10_3 length=0.09772 units=km
New Line.SMT_10501 phases=3 bus1=291941.1.2.3 bus2= 291951.1.2.3 linecode=13_3 length=0.143 units=km
New Line.SMT_10508 phases=3 bus1=295971.1.2.3 bus2= 295981.1.2.3 linecode=10_3 length=0.12435 units=km
New Line.SMT_10511 phases=3 bus1=347781.1.2.3 bus2= 291261.1.2.3 linecode=13_3 length=0.03842 units=km
New Line.SMT_10524 phases=1 bus1=368301.2 bus2= 368311.2 linecode=1_1 length=0.14009 units=km
New Line.SMT_10530 phases=1 bus1=179911.1 bus2= 179971.1 linecode=1_1 length=0.08071 units=km
New Line.SMT_10533 phases=3 bus1=300451.1.2.3 bus2= 300461.1.2.3 linecode=10_3 length=0.13223 units=km
New Line.SMT_10541 phases=3 bus1=292001.1.2.3 bus2= 292011.1.2.3 linecode=13_3 length=0.08324 units=km
New Line.SMT_10544 phases=1 bus1=285261.2 bus2= 285271.2 linecode=1_1 length=0.20817 units=km
New Line.SMT_10557 phases=3 bus1=236731.1.2.3 bus2= 236741.1.2.3 linecode=13_3 length=0.01487 units=km
New Line.SMT_1057 phases=1 bus1=743151.1 bus2= 673631.1 linecode=1_1 length=0.07066 units=km
New Line.SMT_10602 phases=3 bus1=287931.1.2.3 bus2= 667451.1.2.3 linecode=10_3 length=0.00322 units=km
New Line.SMT_10605 phases=3 bus1=284741.1.2.3 bus2= 284751.1.2.3 linecode=10_3 length=0.12397 units=km
New Line.SMT_10609 phases=3 bus1=637591.1.2.3 bus2= 283261.1.2.3 linecode=10_3 length=0.04909 units=km
New Line.SMT_10610 phases=3 bus1=269411.1.2.3 bus2= 269401.1.2.3 linecode=28_3 length=0.09602 units=km
New Line.SMT_10617 phases=1 bus1=368281.2 bus2= 368301.2 linecode=1_1 length=0.10667 units=km
New Line.SMT_10618 phases=3 bus1=300441.1.2.3 bus2= 300451.1.2.3 linecode=10_3 length=0.05166 units=km
New Line.SMT_10621 phases=3 bus1=285761.1.2.3 bus2= 285771.1.2.3 linecode=10_3 length=0.06957 units=km
New Line.SMT_10624 phases=1 bus1=271301.1 bus2= 271311.1 linecode=1_1 length=0.05109 units=km
New Line.SMT_10633 phases=3 bus1=236321.1.2.3 bus2= 236331.1.2.3 linecode=10_3 length=0.06798 units=km
New Line.SMT_10645 phases=3 bus1=230311.1.2.3.4 bus2= 230321.1.2.3.4 linecode=19_3 length=0.11682 units=km
New Line.SMT_10647 phases=3 bus1=236341.1.2.3 bus2= 236371.1.2.3 linecode=10_3 length=0.05408 units=km
New Line.SMT_10657 phases=3 bus1=269421.1.2.3 bus2= 269431.1.2.3 linecode=28_3 length=0.08701 units=km
New Line.SMT_10670 phases=1 bus1=284191.1 bus2= 284201.1 linecode=1_1 length=0.09898 units=km
New Line.SMT_10671 phases=3 bus1=264141.1.2.3 bus2= 264151.1.2.3 linecode=10_3 length=0.11048 units=km
New Line.SMT_10675 phases=3 bus1=229321.1.2.3 bus2= 229311.1.2.3 linecode=10_3 length=0.04833 units=km
New Line.SMT_10677 phases=3 bus1=253601.1.2.3 bus2= 253611.1.2.3 linecode=10_3 length=0.09301 units=km
New Line.SMT_10678 phases=3 bus1=282801.1.2.3 bus2= 291161.1.2.3 linecode=10_3 length=0.12442 units=km
New Line.SMT_10690 phases=3 bus1=378971.1.2.3 bus2= 378981.1.2.3 linecode=13_3 length=0.10429 units=km
New Line.SMT_10691 phases=3 bus1=290441.1.2.3 bus2= 328581.1.2.3 linecode=10_3 length=0.02871 units=km
New Line.SMT_10692 phases=1 bus1=289991.1 bus2= 290011.1 linecode=1_1 length=0.09235 units=km
New Line.SMT_10701 phases=3 bus1=231131.1.2.3 bus2= 611321.1.2.3 linecode=10_3 length=0.05178 units=km
New Line.SMT_10702 phases=3 bus1=301202.1.2.3 bus2= 301211.1.2.3 linecode=10_3 length=0.10536 units=km
New Line.SMT_10707 phases=3 bus1=559161.1.2.3 bus2= 559151.1.2.3 linecode=28_3 length=0.05547 units=km
New Line.SMT_10723 phases=3 bus1=265241.1.2.3 bus2= 265251.1.2.3 linecode=10_3 length=0.09538 units=km
New Line.SMT_10728 phases=3 bus1=559091.1.2.3 bus2= 559081.1.2.3 linecode=28_3 length=0.05899 units=km
New Line.SMT_10729 phases=3 bus1=250981.1.2.3 bus2= 250991.1.2.3 linecode=10_3 length=0.04357 units=km
New Line.SMT_10730 phases=3 bus1=250381.1.2.3 bus2= 250391.1.2.3 linecode=10_3 length=0.11208 units=km
New Line.SMT_10731 phases=3 bus1=264151.1.2.3 bus2= 279141.1.2.3 linecode=10_3 length=0.12841 units=km
New Line.SMT_10733 phases=3 bus1=273251.1.2.3.4 bus2= 273261.1.2.3.4 linecode=19_3 length=0.09263 units=km
New Line.SMT_10741 phases=3 bus1=234251.1.2.3 bus2= 549771.1.2.3 linecode=10_3 length=0.02508 units=km
New Line.SMT_10742 phases=3 bus1=283301.1.2.3 bus2= 283311.1.2.3 linecode=10_3 length=0.09405 units=km
New Line.SMT_10749 phases=3 bus1=269411.1.2.3 bus2= 269421.1.2.3 linecode=28_3 length=0.105 units=km
New Line.SMT_10754 phases=3 bus1=652461.1.2.3 bus2= 300521.1.2.3 linecode=10_3 length=0.06248 units=km
New Line.SMT_10757 phases=3 bus1=261091.1.2.3 bus2= 261101.1.2.3 linecode=10_3 length=0.04707 units=km
New Line.SMT_10766 phases=3 bus1=283311.1.2.3 bus2= 283321.1.2.3 linecode=10_3 length=0.07849 units=km
New Line.SMT_10770 phases=3 bus1=285771.1.2.3 bus2= 285781.1.2.3 linecode=10_3 length=0.06845 units=km
New Line.SMT_10772 phases=3 bus1=30CF613.1.2.3 bus2= 291271.1.2.3 linecode=10_3 length=0.32657 units=km
New Line.SMT_10775 phases=3 bus1=230261.1.2.3 bus2= 230251.1.2.3 linecode=10_3 length=0.03736 units=km
New Line.SMT_10777 phases=3 bus1=269391.1.2.3 bus2= 269381.1.2.3 linecode=28_3 length=0.08401 units=km
New Line.SMT_10783 phases=3 bus1=232031.1.2.3 bus2= 232041.1.2.3 linecode=10_3 length=0.04052 units=km
New Line.SMT_10788 phases=1 bus1=271391.1 bus2= 271401.1 linecode=1_1 length=0.15092 units=km
New Line.SMT_10790 phases=3 bus1=281851.1.2.3 bus2= 281861.1.2.3 linecode=10_3 length=0.1079 units=km
New Line.SMT_10792 phases=3 bus1=261101.1.2.3 bus2= 261111.1.2.3 linecode=10_3 length=0.06694 units=km
New Line.SMT_10794 phases=1 bus1=253981.1 bus2= 253991.1 linecode=27_1 length=0.0993 units=km
New Line.SMT_10796 phases=3 bus1=231221.1.2.3.4 bus2= 231211.1.2.3.4 linecode=19_3 length=0.10538 units=km
New Line.SMT_10797 phases=3 bus1=265111.1.2.3 bus2= 265121.1.2.3 linecode=10_3 length=0.09801 units=km
New Line.SMT_10798 phases=1 bus1=289981.1 bus2= 289991.1 linecode=1_1 length=0.12839 units=km
New Line.SMT_10805 phases=3 bus1=301211.1.2.3 bus2= 301221.1.2.3 linecode=13_3 length=0.11006 units=km
New Line.SMT_10807 phases=1 bus1=289621.2 bus2= 289631.2 linecode=1_1 length=0.09652 units=km
New Line.SMT_10808 phases=3 bus1=291961.1.2.3 bus2= 291971.1.2.3 linecode=13_3 length=0.10565 units=km
New Line.SMT_10810 phases=3 bus1=250581.1.2.3 bus2= 251221.1.2.3 linecode=10_3 length=0.11521 units=km
New Line.SMT_10821 phases=3 bus1=273291.1.2.3.4 bus2= 273301.1.2.3.4 linecode=19_3 length=0.06931 units=km
New Line.SMT_10822 phases=3 bus1=273301.1.2.3.4 bus2= 273311.1.2.3.4 linecode=19_3 length=0.0891 units=km
New Line.SMT_10823 phases=3 bus1=291911.1.2.3 bus2= 304741.1.2.3 linecode=10_3 length=0.00361 units=km
New Line.SMT_10831 phases=1 bus1=253991.1 bus2= 254001.1 linecode=27_1 length=0.07596 units=km
New Line.SMT_10837 phases=3 bus1=30FR753.1.2.3 bus2= 250381.1.2.3 linecode=10_3 length=0.1016 units=km
New Line.SMT_10838 phases=1 bus1=289631.2 bus2= 289641.2 linecode=1_1 length=0.09762 units=km
New Line.SMT_10842 phases=3 bus1=251981.1.2.3 bus2= 251991.1.2.3 linecode=10_3 length=0.06366 units=km
New Line.SMT_10848 phases=1 bus1=238921.2 bus2= 199901.2 linecode=1_1 length=0.123 units=km
New Line.SMT_10861 phases=3 bus1=347771.1.2.3 bus2= 347781.1.2.3 linecode=13_3 length=0.03748 units=km
New Line.SMT_10863 phases=3 bus1=252461.1.2.3.4 bus2= 252471.1.2.3.4 linecode=19_3 length=0.10139 units=km
New Line.SMT_10864 phases=1 bus1=264151.3 bus2= 264171.3 linecode=1_1 length=0.15671 units=km
New Line.SMT_10870 phases=1 bus1=252161.1 bus2= 237591.1 linecode=1_1 length=0.21341 units=km
New Line.SMT_10882 phases=3 bus1=230251.1.2.3 bus2= 230241.1.2.3 linecode=10_3 length=0.02864 units=km
New Line.SMT_10887 phases=1 bus1=351991.1 bus2= 365191.1 linecode=30_1 length=0.10208 units=km
New Line.SMT_10890 phases=1 bus1=364861.3 bus2= 284331.3 linecode=1_1 length=0.10334 units=km
New Line.SMT_10892 phases=3 bus1=234371.1.2.3 bus2= 234381.1.2.3 linecode=10_3 length=0.09209 units=km
New Line.SMT_10896 phases=3 bus1=253571.1.2.3 bus2= 347581.1.2.3 linecode=10_3 length=0.00076 units=km
New Line.SMT_10899 phases=3 bus1=299441.1.2.3 bus2= 299451.1.2.3 linecode=11_3 length=0.12896 units=km
New Line.SMT_10900 phases=3 bus1=253881.1.2.3 bus2= 343001.1.2.3 linecode=10_3 length=0.07228 units=km
New Line.SMT_10903 phases=1 bus1=284171.1 bus2= 284181.1 linecode=1_1 length=0.18479 units=km
New Line.SMT_10904 phases=3 bus1=30FR615.1.2.3 bus2= 253581.1.2.3 linecode=10_3 length=0.06161 units=km
New Line.SMT_10911 phases=3 bus1=30CF1038.1.2.3 bus2= 251941.1.2.3 linecode=10_3 length=0.04776 units=km
New Line.SMT_10919 phases=3 bus1=273221.1.2.3.4 bus2= 273231.1.2.3.4 linecode=19_3 length=0.10312 units=km
New Line.SMT_10924 phases=3 bus1=288651.1.2.3 bus2= 470271.1.2.3 linecode=10_3 length=0.04073 units=km
New Line.SMT_1093 phases=1 bus1=105341.2 bus2= 105351.2 linecode=1_1 length=0.09575 units=km
New Line.SMT_10934 phases=3 bus1=664621.1.2.3 bus2= 664631.1.2.3 linecode=13_3 length=0.0692 units=km
New Line.SMT_10937 phases=3 bus1=273201.1.2.3.4 bus2= 273211.1.2.3.4 linecode=19_3 length=0.12606 units=km
New Line.SMT_10939 phases=3 bus1=273211.1.2.3.4 bus2= 273221.1.2.3.4 linecode=19_3 length=0.07151 units=km
New Line.SMT_10940 phases=3 bus1=283361.1.2.3 bus2= 344511.1.2.3 linecode=10_3 length=0.09179 units=km
New Line.SMT_10945 phases=3 bus1=250041.1.2.3 bus2= 283241.1.2.3 linecode=10_3 length=0.0327 units=km
New Line.SMT_10952 phases=1 bus1=284111.1 bus2= 284121.1 linecode=1_1 length=0.09765 units=km
New Line.SMT_10959 phases=3 bus1=295981.1.2.3 bus2= 183171.1.2.3 linecode=10_3 length=0.10161 units=km
New Line.SMT_10964 phases=1 bus1=271291.1 bus2= 271301.1 linecode=1_1 length=0.09502 units=km
New Line.SMT_10968 phases=1 bus1=352001.1 bus2= 351991.1 linecode=30_1 length=0.11374 units=km
New Line.SMT_10974 phases=3 bus1=267491.1.2.3 bus2= 290611.1.2.3 linecode=10_3 length=0.03046 units=km
New Line.SMT_10983 phases=3 bus1=254601.1.2.3 bus2= 253881.1.2.3 linecode=10_3 length=0.11985 units=km
New Line.SMT_10989 phases=3 bus1=251031.1.2.3 bus2= 251041.1.2.3 linecode=10_3 length=0.07981 units=km
New Line.SMT_10992 phases=3 bus1=283261.1.2.3 bus2= 284271.1.2.3 linecode=10_3 length=0.10984 units=km
New Line.SMT_10993 phases=1 bus1=237591.1 bus2= 237571.1 linecode=1_1 length=0.29674 units=km
New Line.SMT_10997 phases=3 bus1=612261.1.2.3 bus2= 279091.1.2.3 linecode=10_3 length=0.29874 units=km
New Line.SMT_11002 phases=3 bus1=236411.1.2.3 bus2= 250981.1.2.3 linecode=10_3 length=0.08443 units=km
New Line.SMT_11007 phases=3 bus1=30CF624.1.2.3 bus2= 268111.1.2.3 linecode=10_3 length=0.00464 units=km
New Line.SMT_11013 phases=3 bus1=344511.1.2.3 bus2= 344521.1.2.3 linecode=10_3 length=0.13647 units=km
New Line.SMT_11023 phases=3 bus1=232061.1.2.3 bus2= 232071.1.2.3 linecode=10_3 length=0.0927 units=km
New Line.SMT_11024 phases=3 bus1=250561.1.2.3 bus2= 250571.1.2.3 linecode=10_3 length=0.08981 units=km
New Line.SMT_11026 phases=3 bus1=231121.1.2.3 bus2= 231131.1.2.3 linecode=10_3 length=0.06265 units=km
New Line.SMT_11027 phases=3 bus1=250391.1.2.3 bus2= 349561.1.2.3 linecode=10_3 length=0.0747 units=km
New Line.SMT_11028 phases=3 bus1=277141.1.2.3 bus2= 459041.1.2.3 linecode=28_3 length=0.07066 units=km
New Line.SMT_11029 phases=3 bus1=254091.1.2.3.4 bus2= 254101.1.2.3.4 linecode=19_3 length=0.35719 units=km
New Line.SMT_11030 phases=3 bus1=234221.1.2.3 bus2= 234231.1.2.3 linecode=10_3 length=0.1078 units=km
New Line.SMT_11033 phases=3 bus1=245001.1.2.3.4 bus2= 249411.1.2.3.4 linecode=19_3 length=0.12577 units=km
New Line.SMT_11034 phases=1 bus1=248281.1 bus2= 248291.1 linecode=27_1 length=0.0755 units=km
...
